Version 4
SHEET 1 880 680
WIRE -144 96 -208 96
WIRE -64 96 -80 96
WIRE 0 96 -64 96
WIRE 96 96 64 96
WIRE 128 96 96 96
WIRE 224 96 192 96
WIRE 336 96 288 96
WIRE 464 96 400 96
WIRE 400 176 400 160
WIRE 464 176 400 176
WIRE -64 192 -64 160
WIRE 192 192 192 160
WIRE 192 192 -64 192
WIRE 400 192 400 176
WIRE -208 208 -208 176
WIRE 96 224 96 160
WIRE 288 224 288 160
WIRE 288 224 96 224
WIRE -64 336 -64 272
WIRE 96 336 96 304
FLAG 400 192 0
FLAG -64 336 0
FLAG 96 336 0
FLAG -208 208 0
FLAG 464 96 Vout
SYMBOL cap 384 96 R0
SYMATTR InstName C5
SYMATTR Value 100µ
SYMBOL polcap 272 96 R0
WINDOW 3 24 56 Left 2
SYMATTR InstName C4
SYMATTR Value 47µ
SYMATTR Description Capacitor
SYMATTR Type cap
SYMATTR SpiceLine V=16 Irms=0 Rser=0.9 Lser=0 mfg="AVX" pn="TAJD476M016" type="Tantalum"
SYMBOL polcap 176 96 R0
WINDOW 3 24 56 Left 2
SYMATTR InstName C3
SYMATTR Value 47µ
SYMATTR Description Capacitor
SYMATTR Type cap
SYMATTR SpiceLine V=16 Irms=0 Rser=0.9 Lser=0 mfg="AVX" pn="TAJD476M016" type="Tantalum"
SYMBOL polcap 80 96 R0
WINDOW 3 24 56 Left 2
SYMATTR InstName C2
SYMATTR Value 47µ
SYMATTR Description Capacitor
SYMATTR Type cap
SYMATTR SpiceLine V=16 Irms=0 Rser=0.9 Lser=0 mfg="AVX" pn="TAJD476M016" type="Tantalum"
SYMBOL polcap -80 96 R0
WINDOW 3 24 56 Left 2
SYMATTR InstName C1
SYMATTR Value 47µ
SYMATTR Description Capacitor
SYMATTR Type cap
SYMATTR SpiceLine V=16 Irms=0 Rser=0.9 Lser=0 mfg="AVX" pn="TAJD476M016" type="Tantalum"
SYMBOL schottky -144 112 R270
WINDOW 0 32 32 VTop 2
WINDOW 3 91 28 VBottom 2
SYMATTR InstName D1
SYMATTR Value 1N5818
SYMATTR Description Diode
SYMATTR Type diode
SYMBOL schottky 0 112 R270
WINDOW 0 32 32 VTop 2
WINDOW 3 93 37 VBottom 2
SYMATTR InstName D2
SYMATTR Value 1N5818
SYMATTR Description Diode
SYMATTR Type diode
SYMBOL schottky 128 112 R270
WINDOW 0 32 32 VTop 2
WINDOW 3 93 36 VBottom 2
SYMATTR InstName D3
SYMATTR Value 1N5818
SYMATTR Description Diode
SYMATTR Type diode
SYMBOL schottky 224 112 R270
WINDOW 0 32 32 VTop 2
WINDOW 3 93 39 VBottom 2
SYMATTR InstName D4
SYMATTR Value 1N5818
SYMATTR Description Diode
SYMATTR Type diode
SYMBOL schottky 336 112 R270
WINDOW 0 32 32 VTop 2
WINDOW 3 94 30 VBottom 2
SYMATTR InstName D5
SYMATTR Value 1N5818
SYMATTR Description Diode
SYMATTR Type diode
SYMBOL voltage -64 176 R0
WINDOW 3 -317 115 Left 2
WINDOW 123 0 0 Left 2
WINDOW 39 0 0 Left 2
WINDOW 0 -145 76 Left 2
SYMATTR Value PULSE(0 {V} 0 0 0 500u 1m)
SYMATTR InstName Vphase0
SYMBOL voltage 96 208 R0
WINDOW 123 0 0 Left 2
WINDOW 39 0 0 Left 2
WINDOW 0 -134 70 Left 2
SYMATTR InstName Vphase1
SYMATTR Value PULSE(0 {V} 500u 0 0 500u 1m)
SYMBOL res 448 80 R0
SYMATTR InstName RL
SYMATTR Value {RL}
SYMBOL voltage -208 80 R0
WINDOW 123 0 0 Left 2
WINDOW 39 0 0 Left 2
WINDOW 0 -74 19 Left 2
SYMATTR InstName Vin
SYMATTR Value {V}
TEXT -416 40 Left 2 !.tran 1
TEXT -432 0 Left 2 !.params v=3.3 RL=100k
TEXT -416 -40 Left 2 !.step param rl list 1k 10k 100k
