Version 4
SHEET 1 880 680
WIRE -64 -144 -208 -144
WIRE 112 -144 -64 -144
WIRE -208 -80 -208 -144
WIRE 32 -64 -64 -64
WIRE 32 -16 32 -64
WIRE 32 -16 0 -16
WIRE 48 -16 32 -16
WIRE 32 32 -64 32
WIRE 112 32 32 32
WIRE -208 80 -208 0
WIRE 32 80 32 32
WIRE 32 80 -208 80
WIRE 32 112 32 80
FLAG 32 112 0
FLAG 32 -64 Vb
SYMBOL res -80 -160 R0
SYMATTR InstName R1
SYMATTR Value 1000
SYMBOL res 96 -160 R0
SYMATTR InstName RLoad
SYMATTR Value 20
SYMBOL voltage -208 -96 R0
WINDOW 123 0 0 Left 2
WINDOW 39 0 0 Left 2
SYMATTR InstName V1
SYMATTR Value 10.7
SYMBOL npn 0 -64 M0
WINDOW 3 56 68 Invisible 2
SYMATTR InstName Q1
SYMATTR Value 2N2222
SYMBOL npn 48 -64 R0
WINDOW 3 56 68 Invisible 2
SYMATTR InstName Q2
SYMATTR Value 2N2222
TEXT -242 136 Left 2 !.op
